* NGSPICE file created from wb_openram_wrapper.ext - technology: sky130A

* Black-box entry subcircuit for sky130_fd_sc_hd__decap_12 abstract view
.subckt sky130_fd_sc_hd__decap_12 VGND VNB VPB VPWR
.ends

* Black-box entry subcircuit for sky130_fd_sc_hd__decap_6 abstract view
.subckt sky130_fd_sc_hd__decap_6 VGND VNB VPB VPWR
.ends

* Black-box entry subcircuit for sky130_fd_sc_hd__fill_2 abstract view
.subckt sky130_fd_sc_hd__fill_2 VGND VNB VPB VPWR
.ends

* Black-box entry subcircuit for sky130_fd_sc_hd__fill_1 abstract view
.subckt sky130_fd_sc_hd__fill_1 VGND VNB VPB VPWR
.ends

* Black-box entry subcircuit for sky130_fd_sc_hd__decap_4 abstract view
.subckt sky130_fd_sc_hd__decap_4 VGND VNB VPB VPWR
.ends

* Black-box entry subcircuit for sky130_fd_sc_hd__decap_3 abstract view
.subckt sky130_fd_sc_hd__decap_3 VGND VNB VPB VPWR
.ends

* Black-box entry subcircuit for sky130_fd_sc_hd__decap_8 abstract view
.subckt sky130_fd_sc_hd__decap_8 VGND VNB VPB VPWR
.ends

* Black-box entry subcircuit for sky130_fd_sc_hd__clkbuf_1 abstract view
.subckt sky130_fd_sc_hd__clkbuf_1 A VGND VNB VPB VPWR X
.ends

* Black-box entry subcircuit for sky130_fd_sc_hd__clkbuf_2 abstract view
.subckt sky130_fd_sc_hd__clkbuf_2 A VGND VNB VPB VPWR X
.ends

* Black-box entry subcircuit for sky130_fd_sc_hd__or2_1 abstract view
.subckt sky130_fd_sc_hd__or2_1 A B VGND VNB VPB VPWR X
.ends

* Black-box entry subcircuit for sky130_fd_sc_hd__o221a_1 abstract view
.subckt sky130_fd_sc_hd__o221a_1 A1 A2 B1 B2 C1 VGND VNB VPB VPWR X
.ends

* Black-box entry subcircuit for sky130_fd_sc_hd__dlymetal6s2s_1 abstract view
.subckt sky130_fd_sc_hd__dlymetal6s2s_1 A VGND VNB VPB VPWR X
.ends

* Black-box entry subcircuit for sky130_fd_sc_hd__o21a_1 abstract view
.subckt sky130_fd_sc_hd__o21a_1 A1 A2 B1 VGND VNB VPB VPWR X
.ends

* Black-box entry subcircuit for sky130_fd_sc_hd__and2_2 abstract view
.subckt sky130_fd_sc_hd__and2_2 A B VGND VNB VPB VPWR X
.ends

* Black-box entry subcircuit for sky130_fd_sc_hd__o211a_1 abstract view
.subckt sky130_fd_sc_hd__o211a_1 A1 A2 B1 C1 VGND VNB VPB VPWR X
.ends

* Black-box entry subcircuit for sky130_fd_sc_hd__buf_2 abstract view
.subckt sky130_fd_sc_hd__buf_2 A VGND VNB VPB VPWR X
.ends

* Black-box entry subcircuit for sky130_fd_sc_hd__dfxtp_2 abstract view
.subckt sky130_fd_sc_hd__dfxtp_2 CLK D VGND VNB VPB VPWR Q
.ends

* Black-box entry subcircuit for sky130_fd_sc_hd__mux2_2 abstract view
.subckt sky130_fd_sc_hd__mux2_2 A0 A1 S VGND VNB VPB VPWR X
.ends

* Black-box entry subcircuit for sky130_fd_sc_hd__or2_2 abstract view
.subckt sky130_fd_sc_hd__or2_2 A B VGND VNB VPB VPWR X
.ends

* Black-box entry subcircuit for sky130_fd_sc_hd__inv_2 abstract view
.subckt sky130_fd_sc_hd__inv_2 A VGND VNB VPB VPWR Y
.ends

* Black-box entry subcircuit for sky130_fd_sc_hd__tapvpwrvgnd_1 abstract view
.subckt sky130_fd_sc_hd__tapvpwrvgnd_1 VGND VPWR
.ends

* Black-box entry subcircuit for sky130_fd_sc_hd__nor3_2 abstract view
.subckt sky130_fd_sc_hd__nor3_2 A B C VGND VNB VPB VPWR Y
.ends

* Black-box entry subcircuit for sky130_fd_sc_hd__a21o_1 abstract view
.subckt sky130_fd_sc_hd__a21o_1 A1 A2 B1 VGND VNB VPB VPWR X
.ends

* Black-box entry subcircuit for sky130_fd_sc_hd__diode_2 abstract view
.subckt sky130_fd_sc_hd__diode_2 DIODE VGND VNB VPB VPWR
.ends

* Black-box entry subcircuit for sky130_fd_sc_hd__dfxtp_1 abstract view
.subckt sky130_fd_sc_hd__dfxtp_1 CLK D VGND VNB VPB VPWR Q
.ends

* Black-box entry subcircuit for sky130_fd_sc_hd__buf_1 abstract view
.subckt sky130_fd_sc_hd__buf_1 A VGND VNB VPB VPWR X
.ends

* Black-box entry subcircuit for sky130_fd_sc_hd__clkbuf_4 abstract view
.subckt sky130_fd_sc_hd__clkbuf_4 A VGND VNB VPB VPWR X
.ends

* Black-box entry subcircuit for sky130_fd_sc_hd__clkbuf_16 abstract view
.subckt sky130_fd_sc_hd__clkbuf_16 A VGND VNB VPB VPWR X
.ends

* Black-box entry subcircuit for sky130_fd_sc_hd__a22o_1 abstract view
.subckt sky130_fd_sc_hd__a22o_1 A1 A2 B1 B2 VGND VNB VPB VPWR X
.ends

* Black-box entry subcircuit for sky130_fd_sc_hd__mux2_8 abstract view
.subckt sky130_fd_sc_hd__mux2_8 A0 A1 S VGND VNB VPB VPWR X
.ends

* Black-box entry subcircuit for sky130_fd_sc_hd__mux2_1 abstract view
.subckt sky130_fd_sc_hd__mux2_1 A0 A1 S VGND VNB VPB VPWR X
.ends

* Black-box entry subcircuit for sky130_fd_sc_hd__nand2_1 abstract view
.subckt sky130_fd_sc_hd__nand2_1 A B VGND VNB VPB VPWR Y
.ends

* Black-box entry subcircuit for sky130_fd_sc_hd__a31o_1 abstract view
.subckt sky130_fd_sc_hd__a31o_1 A1 A2 A3 B1 VGND VNB VPB VPWR X
.ends

* Black-box entry subcircuit for sky130_fd_sc_hd__a31o_2 abstract view
.subckt sky130_fd_sc_hd__a31o_2 A1 A2 A3 B1 VGND VNB VPB VPWR X
.ends

* Black-box entry subcircuit for sky130_fd_sc_hd__o21ai_1 abstract view
.subckt sky130_fd_sc_hd__o21ai_1 A1 A2 B1 VGND VNB VPB VPWR Y
.ends

* Black-box entry subcircuit for sky130_fd_sc_hd__and2_1 abstract view
.subckt sky130_fd_sc_hd__and2_1 A B VGND VNB VPB VPWR X
.ends

* Black-box entry subcircuit for sky130_fd_sc_hd__clkinv_2 abstract view
.subckt sky130_fd_sc_hd__clkinv_2 A VGND VNB VPB VPWR Y
.ends

* Black-box entry subcircuit for sky130_fd_sc_hd__clkdlybuf4s25_1 abstract view
.subckt sky130_fd_sc_hd__clkdlybuf4s25_1 A VGND VNB VPB VPWR X
.ends

* Black-box entry subcircuit for sky130_fd_sc_hd__o21ba_1 abstract view
.subckt sky130_fd_sc_hd__o21ba_1 A1 A2 B1_N VGND VNB VPB VPWR X
.ends

* Black-box entry subcircuit for sky130_fd_sc_hd__a41o_1 abstract view
.subckt sky130_fd_sc_hd__a41o_1 A1 A2 A3 A4 B1 VGND VNB VPB VPWR X
.ends

* Black-box entry subcircuit for sky130_fd_sc_hd__nor2_1 abstract view
.subckt sky130_fd_sc_hd__nor2_1 A B VGND VNB VPB VPWR Y
.ends

* Black-box entry subcircuit for sky130_fd_sc_hd__nor4_4 abstract view
.subckt sky130_fd_sc_hd__nor4_4 A B C D VGND VNB VPB VPWR Y
.ends

* Black-box entry subcircuit for sky130_fd_sc_hd__o21ai_4 abstract view
.subckt sky130_fd_sc_hd__o21ai_4 A1 A2 B1 VGND VNB VPB VPWR Y
.ends

* Black-box entry subcircuit for sky130_fd_sc_hd__a21oi_1 abstract view
.subckt sky130_fd_sc_hd__a21oi_1 A1 A2 B1 VGND VNB VPB VPWR Y
.ends

* Black-box entry subcircuit for sky130_fd_sc_hd__and3_1 abstract view
.subckt sky130_fd_sc_hd__and3_1 A B C VGND VNB VPB VPWR X
.ends

* Black-box entry subcircuit for sky130_fd_sc_hd__buf_4 abstract view
.subckt sky130_fd_sc_hd__buf_4 A VGND VNB VPB VPWR X
.ends

* Black-box entry subcircuit for sky130_fd_sc_hd__and4b_2 abstract view
.subckt sky130_fd_sc_hd__and4b_2 A_N B C D VGND VNB VPB VPWR X
.ends

* Black-box entry subcircuit for sky130_fd_sc_hd__nand2_4 abstract view
.subckt sky130_fd_sc_hd__nand2_4 A B VGND VNB VPB VPWR Y
.ends

* Black-box entry subcircuit for sky130_fd_sc_hd__dfxtp_4 abstract view
.subckt sky130_fd_sc_hd__dfxtp_4 CLK D VGND VNB VPB VPWR Q
.ends

* Black-box entry subcircuit for sky130_fd_sc_hd__a211o_1 abstract view
.subckt sky130_fd_sc_hd__a211o_1 A1 A2 B1 C1 VGND VNB VPB VPWR X
.ends

* Black-box entry subcircuit for sky130_fd_sc_hd__nor3_1 abstract view
.subckt sky130_fd_sc_hd__nor3_1 A B C VGND VNB VPB VPWR Y
.ends

* Black-box entry subcircuit for sky130_fd_sc_hd__or4_1 abstract view
.subckt sky130_fd_sc_hd__or4_1 A B C D VGND VNB VPB VPWR X
.ends

* Black-box entry subcircuit for sky130_fd_sc_hd__nor2_2 abstract view
.subckt sky130_fd_sc_hd__nor2_2 A B VGND VNB VPB VPWR Y
.ends

* Black-box entry subcircuit for sky130_fd_sc_hd__and3b_1 abstract view
.subckt sky130_fd_sc_hd__and3b_1 A_N B C VGND VNB VPB VPWR X
.ends

* Black-box entry subcircuit for sky130_fd_sc_hd__nand2_2 abstract view
.subckt sky130_fd_sc_hd__nand2_2 A B VGND VNB VPB VPWR Y
.ends

* Black-box entry subcircuit for sky130_fd_sc_hd__o31a_1 abstract view
.subckt sky130_fd_sc_hd__o31a_1 A1 A2 A3 B1 VGND VNB VPB VPWR X
.ends

* Black-box entry subcircuit for sky130_fd_sc_hd__and2b_1 abstract view
.subckt sky130_fd_sc_hd__and2b_1 A_N B VGND VNB VPB VPWR X
.ends

* Black-box entry subcircuit for sky130_fd_sc_hd__a32o_1 abstract view
.subckt sky130_fd_sc_hd__a32o_1 A1 A2 A3 B1 B2 VGND VNB VPB VPWR X
.ends

* Black-box entry subcircuit for sky130_fd_sc_hd__o21a_2 abstract view
.subckt sky130_fd_sc_hd__o21a_2 A1 A2 B1 VGND VNB VPB VPWR X
.ends

* Black-box entry subcircuit for sky130_fd_sc_hd__dlygate4sd3_1 abstract view
.subckt sky130_fd_sc_hd__dlygate4sd3_1 A VGND VNB VPB VPWR X
.ends

* Black-box entry subcircuit for sky130_fd_sc_hd__and4_1 abstract view
.subckt sky130_fd_sc_hd__and4_1 A B C D VGND VNB VPB VPWR X
.ends

* Black-box entry subcircuit for sky130_fd_sc_hd__a221o_1 abstract view
.subckt sky130_fd_sc_hd__a221o_1 A1 A2 B1 B2 C1 VGND VNB VPB VPWR X
.ends

* Black-box entry subcircuit for sky130_fd_sc_hd__a21oi_2 abstract view
.subckt sky130_fd_sc_hd__a21oi_2 A1 A2 B1 VGND VNB VPB VPWR Y
.ends

* Black-box entry subcircuit for sky130_fd_sc_hd__clkdlybuf4s50_1 abstract view
.subckt sky130_fd_sc_hd__clkdlybuf4s50_1 A VGND VNB VPB VPWR X
.ends

.subckt wb_openram_wrapper ram_addr0[0] ram_addr0[1] ram_addr0[2] ram_addr0[3] ram_addr0[4]
+ ram_addr0[5] ram_addr0[6] ram_addr0[7] ram_addr1[0] ram_addr1[1] ram_addr1[2] ram_addr1[3]
+ ram_addr1[4] ram_addr1[5] ram_addr1[6] ram_addr1[7] ram_clk0 ram_clk1 ram_csb0 ram_csb1
+ ram_din0[0] ram_din0[10] ram_din0[11] ram_din0[12] ram_din0[13] ram_din0[14] ram_din0[15]
+ ram_din0[16] ram_din0[17] ram_din0[18] ram_din0[19] ram_din0[1] ram_din0[20] ram_din0[21]
+ ram_din0[22] ram_din0[23] ram_din0[24] ram_din0[25] ram_din0[26] ram_din0[27] ram_din0[28]
+ ram_din0[29] ram_din0[2] ram_din0[30] ram_din0[31] ram_din0[3] ram_din0[4] ram_din0[5]
+ ram_din0[6] ram_din0[7] ram_din0[8] ram_din0[9] ram_dout0[0] ram_dout0[10] ram_dout0[11]
+ ram_dout0[12] ram_dout0[13] ram_dout0[14] ram_dout0[15] ram_dout0[16] ram_dout0[17]
+ ram_dout0[18] ram_dout0[19] ram_dout0[1] ram_dout0[20] ram_dout0[21] ram_dout0[22]
+ ram_dout0[23] ram_dout0[24] ram_dout0[25] ram_dout0[26] ram_dout0[27] ram_dout0[28]
+ ram_dout0[29] ram_dout0[2] ram_dout0[30] ram_dout0[31] ram_dout0[3] ram_dout0[4]
+ ram_dout0[5] ram_dout0[6] ram_dout0[7] ram_dout0[8] ram_dout0[9] ram_dout1[0] ram_dout1[10]
+ ram_dout1[11] ram_dout1[12] ram_dout1[13] ram_dout1[14] ram_dout1[15] ram_dout1[16]
+ ram_dout1[17] ram_dout1[18] ram_dout1[19] ram_dout1[1] ram_dout1[20] ram_dout1[21]
+ ram_dout1[22] ram_dout1[23] ram_dout1[24] ram_dout1[25] ram_dout1[26] ram_dout1[27]
+ ram_dout1[28] ram_dout1[29] ram_dout1[2] ram_dout1[30] ram_dout1[31] ram_dout1[3]
+ ram_dout1[4] ram_dout1[5] ram_dout1[6] ram_dout1[7] ram_dout1[8] ram_dout1[9] ram_web0
+ ram_wmask0[0] ram_wmask0[1] ram_wmask0[2] ram_wmask0[3] vccd1 vssd1 wb_a_clk_i wb_a_rst_i
+ wb_b_clk_i wb_b_rst_i wbs_a_ack_o wbs_a_adr_i[0] wbs_a_adr_i[10] wbs_a_adr_i[1]
+ wbs_a_adr_i[2] wbs_a_adr_i[3] wbs_a_adr_i[4] wbs_a_adr_i[5] wbs_a_adr_i[6] wbs_a_adr_i[7]
+ wbs_a_adr_i[8] wbs_a_adr_i[9] wbs_a_cyc_i wbs_a_dat_i[0] wbs_a_dat_i[10] wbs_a_dat_i[11]
+ wbs_a_dat_i[12] wbs_a_dat_i[13] wbs_a_dat_i[14] wbs_a_dat_i[15] wbs_a_dat_i[16]
+ wbs_a_dat_i[17] wbs_a_dat_i[18] wbs_a_dat_i[19] wbs_a_dat_i[1] wbs_a_dat_i[20] wbs_a_dat_i[21]
+ wbs_a_dat_i[22] wbs_a_dat_i[23] wbs_a_dat_i[24] wbs_a_dat_i[25] wbs_a_dat_i[26]
+ wbs_a_dat_i[27] wbs_a_dat_i[28] wbs_a_dat_i[29] wbs_a_dat_i[2] wbs_a_dat_i[30] wbs_a_dat_i[31]
+ wbs_a_dat_i[3] wbs_a_dat_i[4] wbs_a_dat_i[5] wbs_a_dat_i[6] wbs_a_dat_i[7] wbs_a_dat_i[8]
+ wbs_a_dat_i[9] wbs_a_dat_o[0] wbs_a_dat_o[10] wbs_a_dat_o[11] wbs_a_dat_o[12] wbs_a_dat_o[13]
+ wbs_a_dat_o[14] wbs_a_dat_o[15] wbs_a_dat_o[16] wbs_a_dat_o[17] wbs_a_dat_o[18]
+ wbs_a_dat_o[19] wbs_a_dat_o[1] wbs_a_dat_o[20] wbs_a_dat_o[21] wbs_a_dat_o[22] wbs_a_dat_o[23]
+ wbs_a_dat_o[24] wbs_a_dat_o[25] wbs_a_dat_o[26] wbs_a_dat_o[27] wbs_a_dat_o[28]
+ wbs_a_dat_o[29] wbs_a_dat_o[2] wbs_a_dat_o[30] wbs_a_dat_o[31] wbs_a_dat_o[3] wbs_a_dat_o[4]
+ wbs_a_dat_o[5] wbs_a_dat_o[6] wbs_a_dat_o[7] wbs_a_dat_o[8] wbs_a_dat_o[9] wbs_a_sel_i[0]
+ wbs_a_sel_i[1] wbs_a_sel_i[2] wbs_a_sel_i[3] wbs_a_stb_i wbs_a_we_i wbs_b_ack_o
+ wbs_b_adr_i[0] wbs_b_adr_i[1] wbs_b_adr_i[2] wbs_b_adr_i[3] wbs_b_adr_i[4] wbs_b_adr_i[5]
+ wbs_b_adr_i[6] wbs_b_adr_i[7] wbs_b_adr_i[8] wbs_b_adr_i[9] wbs_b_cyc_i wbs_b_dat_i[0]
+ wbs_b_dat_i[10] wbs_b_dat_i[11] wbs_b_dat_i[12] wbs_b_dat_i[13] wbs_b_dat_i[14]
+ wbs_b_dat_i[15] wbs_b_dat_i[16] wbs_b_dat_i[17] wbs_b_dat_i[18] wbs_b_dat_i[19]
+ wbs_b_dat_i[1] wbs_b_dat_i[20] wbs_b_dat_i[21] wbs_b_dat_i[22] wbs_b_dat_i[23] wbs_b_dat_i[24]
+ wbs_b_dat_i[25] wbs_b_dat_i[26] wbs_b_dat_i[27] wbs_b_dat_i[28] wbs_b_dat_i[29]
+ wbs_b_dat_i[2] wbs_b_dat_i[30] wbs_b_dat_i[31] wbs_b_dat_i[3] wbs_b_dat_i[4] wbs_b_dat_i[5]
+ wbs_b_dat_i[6] wbs_b_dat_i[7] wbs_b_dat_i[8] wbs_b_dat_i[9] wbs_b_dat_o[0] wbs_b_dat_o[10]
+ wbs_b_dat_o[11] wbs_b_dat_o[12] wbs_b_dat_o[13] wbs_b_dat_o[14] wbs_b_dat_o[15]
+ wbs_b_dat_o[16] wbs_b_dat_o[17] wbs_b_dat_o[18] wbs_b_dat_o[19] wbs_b_dat_o[1] wbs_b_dat_o[20]
+ wbs_b_dat_o[21] wbs_b_dat_o[22] wbs_b_dat_o[23] wbs_b_dat_o[24] wbs_b_dat_o[25]
+ wbs_b_dat_o[26] wbs_b_dat_o[27] wbs_b_dat_o[28] wbs_b_dat_o[29] wbs_b_dat_o[2] wbs_b_dat_o[30]
+ wbs_b_dat_o[31] wbs_b_dat_o[3] wbs_b_dat_o[4] wbs_b_dat_o[5] wbs_b_dat_o[6] wbs_b_dat_o[7]
+ wbs_b_dat_o[8] wbs_b_dat_o[9] wbs_b_sel_i[0] wbs_b_sel_i[1] wbs_b_sel_i[2] wbs_b_sel_i[3]
+ wbs_b_stb_i wbs_b_we_i writable_port_req
XFILLER_39_266 vssd1 vssd1 vccd1 vccd1 sky130_fd_sc_hd__decap_12
XFILLER_22_133 vssd1 vssd1 vccd1 vccd1 sky130_fd_sc_hd__decap_6
XFILLER_52_29 vssd1 vssd1 vccd1 vccd1 sky130_fd_sc_hd__decap_12
XFILLER_10_306 vssd1 vssd1 vccd1 vccd1 sky130_fd_sc_hd__fill_2
XFILLER_22_177 vssd1 vssd1 vccd1 vccd1 sky130_fd_sc_hd__decap_12
XFILLER_108_205 vssd1 vssd1 vccd1 vccd1 sky130_fd_sc_hd__decap_12
XFILLER_7_7 vssd1 vssd1 vccd1 vccd1 sky130_fd_sc_hd__fill_2
XFILLER_89_111 vssd1 vssd1 vccd1 vccd1 sky130_fd_sc_hd__fill_1
XFILLER_89_155 vssd1 vssd1 vccd1 vccd1 sky130_fd_sc_hd__decap_12
XFILLER_133_54 vssd1 vssd1 vccd1 vccd1 sky130_fd_sc_hd__fill_2
XFILLER_92_309 vssd1 vssd1 vccd1 vccd1 sky130_fd_sc_hd__fill_1
XFILLER_45_225 vssd1 vssd1 vccd1 vccd1 sky130_fd_sc_hd__decap_4
XFILLER_26_41 vssd1 vssd1 vccd1 vccd1 sky130_fd_sc_hd__decap_12
XFILLER_93_69 vssd1 vssd1 vccd1 vccd1 sky130_fd_sc_hd__decap_12
XFILLER_26_85 vssd1 vssd1 vccd1 vccd1 sky130_fd_sc_hd__decap_12
XFILLER_13_111 vssd1 vssd1 vccd1 vccd1 sky130_fd_sc_hd__fill_1
XFILLER_53_291 vssd1 vssd1 vccd1 vccd1 sky130_fd_sc_hd__decap_3
XFILLER_9_137 vssd1 vssd1 vccd1 vccd1 sky130_fd_sc_hd__decap_12
XFILLER_54_9 vssd1 vssd1 vccd1 vccd1 sky130_fd_sc_hd__decap_4
XFILLER_114_208 vssd1 vssd1 vccd1 vccd1 sky130_fd_sc_hd__decap_8
XFILLER_3_23 vssd1 vssd1 vccd1 vccd1 sky130_fd_sc_hd__decap_12
X_1270_ _1270_/A vssd1 vssd1 vccd1 vccd1 _1270_/X sky130_fd_sc_hd__clkbuf_1
XFILLER_95_125 vssd1 vssd1 vccd1 vccd1 sky130_fd_sc_hd__decap_12
XFILLER_36_247 vssd1 vssd1 vccd1 vccd1 sky130_fd_sc_hd__decap_4
Xclkbuf_1_1_0__0554_ clkbuf_0__0554_/X vssd1 vssd1 vccd1 vccd1 _1830_/A1 sky130_fd_sc_hd__clkbuf_2
X_0985_ input2/X hold7/X vssd1 vssd1 vccd1 vccd1 _0985_/X sky130_fd_sc_hd__or2_1
X_1606_ _1567_/A _1606_/A2 _1505_/X _1493_/X _1605_/X vssd1 vssd1 vccd1 vccd1 _1606_/X
+ sky130_fd_sc_hd__o221a_1
XFILLER_113_241 vssd1 vssd1 vccd1 vccd1 sky130_fd_sc_hd__fill_1
X_1537_ _1567_/A vssd1 vssd1 vccd1 vccd1 _1537_/X sky130_fd_sc_hd__dlymetal6s2s_1
X_1468_ _1931_/Q _1433_/X _1426_/X vssd1 vssd1 vccd1 vccd1 _1468_/X sky130_fd_sc_hd__o21a_1
X_1399_ _1891_/Q _1411_/B vssd1 vssd1 vccd1 vccd1 _1399_/X sky130_fd_sc_hd__and2_2
XFILLER_27_225 vssd1 vssd1 vccd1 vccd1 sky130_fd_sc_hd__decap_6
XFILLER_103_57 vssd1 vssd1 vccd1 vccd1 sky130_fd_sc_hd__decap_12
XFILLER_42_217 vssd1 vssd1 vccd1 vccd1 sky130_fd_sc_hd__decap_12
XFILLER_50_294 vssd1 vssd1 vccd1 vccd1 sky130_fd_sc_hd__decap_6
XFILLER_12_65 vssd1 vssd1 vccd1 vccd1 sky130_fd_sc_hd__decap_12
XFILLER_128_65 vssd1 vssd1 vccd1 vccd1 sky130_fd_sc_hd__decap_12
XFILLER_92_139 vssd1 vssd1 vccd1 vccd1 sky130_fd_sc_hd__fill_1
XFILLER_18_269 vssd1 vssd1 vccd1 vccd1 sky130_fd_sc_hd__decap_8
XFILLER_127_311 vssd1 vssd1 vccd1 vccd1 sky130_fd_sc_hd__fill_1
X_1322_ _1322_/A vssd1 vssd1 vccd1 vccd1 _1322_/X sky130_fd_sc_hd__clkbuf_1
XFILLER_110_233 vssd1 vssd1 vccd1 vccd1 sky130_fd_sc_hd__decap_8
X_1253_ _1253_/A vssd1 vssd1 vccd1 vccd1 _1253_/X sky130_fd_sc_hd__clkbuf_1
XFILLER_56_309 vssd1 vssd1 vccd1 vccd1 sky130_fd_sc_hd__decap_3
XFILLER_110_288 vssd1 vssd1 vccd1 vccd1 sky130_fd_sc_hd__decap_8
X_1184_ _1456_/A vssd1 vssd1 vccd1 vccd1 _1188_/A sky130_fd_sc_hd__clkbuf_2
XFILLER_32_250 vssd1 vssd1 vccd1 vccd1 sky130_fd_sc_hd__fill_2
XFILLER_32_261 vssd1 vssd1 vccd1 vccd1 sky130_fd_sc_hd__decap_12
X_0968_ _1961_/Q _0965_/X _0966_/X _0967_/X vssd1 vssd1 vccd1 vccd1 _1961_/D sky130_fd_sc_hd__o211a_1
X_0899_ _1612_/B vssd1 vssd1 vccd1 vccd1 _0966_/A sky130_fd_sc_hd__clkbuf_2
Xoutput220 _1322_/X vssd1 vssd1 vccd1 vccd1 wbs_a_ack_o sky130_fd_sc_hd__buf_2
Xoutput231 _1443_/X vssd1 vssd1 vccd1 vccd1 wbs_a_dat_o[19] sky130_fd_sc_hd__buf_2
Xoutput242 _1488_/X vssd1 vssd1 vccd1 vccd1 wbs_a_dat_o[29] sky130_fd_sc_hd__buf_2
Xoutput253 _1499_/X vssd1 vssd1 vccd1 vccd1 wbs_b_ack_o sky130_fd_sc_hd__buf_2
Xoutput275 _1602_/X vssd1 vssd1 vccd1 vccd1 wbs_b_dat_o[29] sky130_fd_sc_hd__buf_2
Xoutput264 _1575_/X vssd1 vssd1 vccd1 vccd1 wbs_b_dat_o[19] sky130_fd_sc_hd__buf_2
XFILLER_59_125 vssd1 vssd1 vccd1 vccd1 sky130_fd_sc_hd__decap_4
XFILLER_59_169 vssd1 vssd1 vccd1 vccd1 sky130_fd_sc_hd__fill_1
XFILLER_101_233 vssd1 vssd1 vccd1 vccd1 sky130_fd_sc_hd__decap_3
XFILLER_74_117 vssd1 vssd1 vccd1 vccd1 sky130_fd_sc_hd__decap_4
XFILLER_74_139 vssd1 vssd1 vccd1 vccd1 sky130_fd_sc_hd__fill_1
XFILLER_82_172 vssd1 vssd1 vccd1 vccd1 sky130_fd_sc_hd__decap_4
XFILLER_130_77 vssd1 vssd1 vccd1 vccd1 sky130_fd_sc_hd__decap_6
XFILLER_30_209 vssd1 vssd1 vccd1 vccd1 sky130_fd_sc_hd__decap_12
XFILLER_23_31 vssd1 vssd1 vccd1 vccd1 sky130_fd_sc_hd__decap_12
XFILLER_136_141 vssd1 vssd1 vccd1 vccd1 sky130_fd_sc_hd__decap_12
XFILLER_99_57 vssd1 vssd1 vccd1 vccd1 sky130_fd_sc_hd__decap_12
XFILLER_2_121 vssd1 vssd1 vccd1 vccd1 sky130_fd_sc_hd__decap_12
XFILLER_2_165 vssd1 vssd1 vccd1 vccd1 sky130_fd_sc_hd__decap_12
XFILLER_48_83 vssd1 vssd1 vccd1 vccd1 sky130_fd_sc_hd__fill_1
XFILLER_65_139 vssd1 vssd1 vccd1 vccd1 sky130_fd_sc_hd__fill_1
XFILLER_0_57 vssd1 vssd1 vccd1 vccd1 sky130_fd_sc_hd__decap_12
XFILLER_64_93 vssd1 vssd1 vccd1 vccd1 sky130_fd_sc_hd__decap_12
X_1940_ _1774_/X _1940_/D vssd1 vssd1 vccd1 vccd1 _1940_/Q sky130_fd_sc_hd__dfxtp_2
XFILLER_14_294 vssd1 vssd1 vccd1 vccd1 sky130_fd_sc_hd__decap_4
XFILLER_9_55 vssd1 vssd1 vccd1 vccd1 sky130_fd_sc_hd__fill_1
X_1871_ _1871_/A0 _1875_/A1 _1871_/S vssd1 vssd1 vccd1 vccd1 _1872_/A sky130_fd_sc_hd__mux2_2
XFILLER_127_196 vssd1 vssd1 vccd1 vccd1 sky130_fd_sc_hd__decap_8
X_1305_ _1305_/A vssd1 vssd1 vccd1 vccd1 _1305_/X sky130_fd_sc_hd__clkbuf_1
X_1236_ _1236_/A vssd1 vssd1 vccd1 vccd1 _1236_/X sky130_fd_sc_hd__clkbuf_2
X_1167_ _1167_/A _1167_/B vssd1 vssd1 vccd1 vccd1 _1612_/C sky130_fd_sc_hd__or2_2
X_1098_ _1098_/A vssd1 vssd1 vccd1 vccd1 _1098_/X sky130_fd_sc_hd__clkbuf_2
XFILLER_100_14 vssd1 vssd1 vccd1 vccd1 sky130_fd_sc_hd__decap_12
XFILLER_60_18 vssd1 vssd1 vccd1 vccd1 sky130_fd_sc_hd__decap_8
XFILLER_60_29 vssd1 vssd1 vccd1 vccd1 sky130_fd_sc_hd__decap_12
XFILLER_133_111 vssd1 vssd1 vccd1 vccd1 sky130_fd_sc_hd__fill_1
X_1193__11 _1193__11/A vssd1 vssd1 vccd1 vccd1 _1194_/A1 sky130_fd_sc_hd__inv_2
XFILLER_85_26 vssd1 vssd1 vccd1 vccd1 sky130_fd_sc_hd__decap_12
XFILLER_18_53 vssd1 vssd1 vccd1 vccd1 sky130_fd_sc_hd__decap_12
XFILLER_43_301 vssd1 vssd1 vccd1 vccd1 sky130_fd_sc_hd__fill_2
XFILLER_18_97 vssd1 vssd1 vccd1 vccd1 sky130_fd_sc_hd__decap_12
XFILLER_70_153 vssd1 vssd1 vccd1 vccd1 sky130_fd_sc_hd__decap_6
XFILLER_34_41 vssd1 vssd1 vccd1 vccd1 sky130_fd_sc_hd__decap_12
XFILLER_34_85 vssd1 vssd1 vccd1 vccd1 sky130_fd_sc_hd__decap_12
XFILLER_109_141 vssd1 vssd1 vccd1 vccd1 sky130_fd_sc_hd__decap_8
XTAP_507 vssd1 vccd1 sky130_fd_sc_hd__tapvpwrvgnd_1
XTAP_518 vssd1 vccd1 sky130_fd_sc_hd__tapvpwrvgnd_1
XTAP_529 vssd1 vccd1 sky130_fd_sc_hd__tapvpwrvgnd_1
XFILLER_22_7 vssd1 vssd1 vccd1 vccd1 sky130_fd_sc_hd__decap_12
XFILLER_78_242 vssd1 vssd1 vccd1 vccd1 sky130_fd_sc_hd__decap_8
XFILLER_78_253 vssd1 vssd1 vccd1 vccd1 sky130_fd_sc_hd__decap_4
XFILLER_38_139 vssd1 vssd1 vccd1 vccd1 sky130_fd_sc_hd__fill_1
X_1021_ _1053_/A _1937_/Q _1061_/A vssd1 vssd1 vccd1 vccd1 _1021_/Y sky130_fd_sc_hd__nor3_2
XFILLER_75_81 vssd1 vssd1 vccd1 vccd1 sky130_fd_sc_hd__decap_8
XFILLER_93_267 vssd1 vssd1 vccd1 vccd1 sky130_fd_sc_hd__decap_3
XFILLER_98_3 vssd1 vssd1 vccd1 vccd1 sky130_fd_sc_hd__decap_3
X_1923_ _1933_/CLK _1923_/D vssd1 vssd1 vccd1 vccd1 _1923_/Q sky130_fd_sc_hd__dfxtp_2
X_1854_ _1859_/A0 _1856_/A1 _1859_/S vssd1 vssd1 vccd1 vccd1 _1855_/A sky130_fd_sc_hd__mux2_2
X_1785_ _1791_/A0 _1791_/A1 _1794_/S vssd1 vssd1 vccd1 vccd1 _1786_/A sky130_fd_sc_hd__mux2_2
XFILLER_115_111 vssd1 vssd1 vccd1 vccd1 sky130_fd_sc_hd__fill_1
XFILLER_69_220 vssd1 vssd1 vccd1 vccd1 sky130_fd_sc_hd__decap_4
XFILLER_130_169 vssd1 vssd1 vccd1 vccd1 sky130_fd_sc_hd__fill_1
Xclkbuf_1_0_0__0521_ clkbuf_0__0521_/X vssd1 vssd1 vccd1 vccd1 _1777_/A1 sky130_fd_sc_hd__clkbuf_2
Xclkbuf_1_0_0__0452_ clkbuf_0__0452_/X vssd1 vssd1 vccd1 vccd1 _1664_/A1 sky130_fd_sc_hd__clkbuf_2
X_1219_ _1219_/A vssd1 vssd1 vccd1 vccd1 _1219_/X sky130_fd_sc_hd__clkbuf_1
XFILLER_44_109 vssd1 vssd1 vccd1 vccd1 sky130_fd_sc_hd__decap_12
XFILLER_55_18 vssd1 vssd1 vccd1 vccd1 sky130_fd_sc_hd__decap_12
XFILLER_37_161 vssd1 vssd1 vccd1 vccd1 sky130_fd_sc_hd__decap_6
XFILLER_40_304 vssd1 vssd1 vccd1 vccd1 sky130_fd_sc_hd__decap_4
XFILLER_111_57 vssd1 vssd1 vccd1 vccd1 sky130_fd_sc_hd__decap_12
XFILLER_52_197 vssd1 vssd1 vccd1 vccd1 sky130_fd_sc_hd__fill_1
XFILLER_138_225 vssd1 vssd1 vccd1 vccd1 sky130_fd_sc_hd__decap_12
XFILLER_20_65 vssd1 vssd1 vccd1 vccd1 sky130_fd_sc_hd__decap_12
XFILLER_136_65 vssd1 vssd1 vccd1 vccd1 sky130_fd_sc_hd__decap_12
XFILLER_121_125 vssd1 vssd1 vccd1 vccd1 sky130_fd_sc_hd__decap_6
XFILLER_121_158 vssd1 vssd1 vccd1 vccd1 sky130_fd_sc_hd__decap_8
XFILLER_121_169 vssd1 vssd1 vccd1 vccd1 sky130_fd_sc_hd__decap_6
XFILLER_75_289 vssd1 vssd1 vccd1 vccd1 sky130_fd_sc_hd__fill_1
XFILLER_90_237 vssd1 vssd1 vccd1 vccd1 sky130_fd_sc_hd__decap_12
XFILLER_43_197 vssd1 vssd1 vccd1 vccd1 sky130_fd_sc_hd__fill_1
XFILLER_129_225 vssd1 vssd1 vccd1 vccd1 sky130_fd_sc_hd__decap_12
XFILLER_84_9 vssd1 vssd1 vccd1 vccd1 sky130_fd_sc_hd__decap_4
X_1570_ _1897_/Q _1561_/X _1569_/X vssd1 vssd1 vccd1 vccd1 _1570_/X sky130_fd_sc_hd__a21o_1
XANTENNA_5 _1584_/A2 vssd1 vssd1 vccd1 vccd1 sky130_fd_sc_hd__diode_2
XFILLER_98_304 vssd1 vssd1 vccd1 vccd1 sky130_fd_sc_hd__decap_4
XTAP_304 vssd1 vccd1 sky130_fd_sc_hd__tapvpwrvgnd_1
XTAP_315 vssd1 vccd1 sky130_fd_sc_hd__tapvpwrvgnd_1
XTAP_348 vssd1 vccd1 sky130_fd_sc_hd__tapvpwrvgnd_1
XTAP_337 vssd1 vccd1 sky130_fd_sc_hd__tapvpwrvgnd_1
XTAP_326 vssd1 vccd1 sky130_fd_sc_hd__tapvpwrvgnd_1
XFILLER_112_158 vssd1 vssd1 vccd1 vccd1 sky130_fd_sc_hd__decap_8
XTAP_359 vssd1 vccd1 sky130_fd_sc_hd__tapvpwrvgnd_1
XFILLER_120_180 vssd1 vssd1 vccd1 vccd1 sky130_fd_sc_hd__decap_6
XFILLER_13_3 vssd1 vssd1 vccd1 vccd1 sky130_fd_sc_hd__decap_12
XFILLER_66_212 vssd1 vssd1 vccd1 vccd1 sky130_fd_sc_hd__decap_4
XFILLER_26_109 vssd1 vssd1 vccd1 vccd1 sky130_fd_sc_hd__decap_12
XFILLER_19_161 vssd1 vssd1 vccd1 vccd1 sky130_fd_sc_hd__decap_6
XFILLER_66_289 vssd1 vssd1 vccd1 vccd1 sky130_fd_sc_hd__decap_4
X_1004_ _1004_/A _1004_/B vssd1 vssd1 vccd1 vccd1 _1004_/X sky130_fd_sc_hd__or2_1
XFILLER_22_304 vssd1 vssd1 vccd1 vccd1 sky130_fd_sc_hd__decap_4
XFILLER_34_153 vssd1 vssd1 vccd1 vccd1 sky130_fd_sc_hd__decap_12
X_1906_ _1691_/X _1906_/D vssd1 vssd1 vccd1 vccd1 _1906_/Q sky130_fd_sc_hd__dfxtp_1
X_1837_ _1843_/A0 _1843_/A1 _1846_/S vssd1 vssd1 vccd1 vccd1 _1838_/A sky130_fd_sc_hd__mux2_2
X_1768_ _1768_/A vssd1 vssd1 vccd1 vccd1 _1768_/X sky130_fd_sc_hd__buf_1
X_1699_ _1712_/A vssd1 vssd1 vccd1 vccd1 _1699_/X sky130_fd_sc_hd__buf_1
XFILLER_103_125 vssd1 vssd1 vccd1 vccd1 sky130_fd_sc_hd__decap_6
XFILLER_103_136 vssd1 vssd1 vccd1 vccd1 sky130_fd_sc_hd__decap_12
XTAP_860 vssd1 vccd1 sky130_fd_sc_hd__tapvpwrvgnd_1
XTAP_871 vssd1 vccd1 sky130_fd_sc_hd__tapvpwrvgnd_1
XTAP_882 vssd1 vccd1 sky130_fd_sc_hd__tapvpwrvgnd_1
XTAP_893 vssd1 vccd1 sky130_fd_sc_hd__tapvpwrvgnd_1
XFILLER_72_215 vssd1 vssd1 vccd1 vccd1 sky130_fd_sc_hd__decap_8
Xclkbuf_1_0_0__0435_ clkbuf_0__0435_/X vssd1 vssd1 vccd1 vccd1 _1637_/A1 sky130_fd_sc_hd__clkbuf_2
XFILLER_15_43 vssd1 vssd1 vccd1 vccd1 sky130_fd_sc_hd__decap_12
XFILLER_9_319 vssd1 vssd1 vccd1 vccd1 sky130_fd_sc_hd__fill_1
XFILLER_40_156 vssd1 vssd1 vccd1 vccd1 sky130_fd_sc_hd__decap_8
XFILLER_48_201 vssd1 vssd1 vccd1 vccd1 sky130_fd_sc_hd__decap_4
Xinput120 wbs_b_adr_i[7] vssd1 vssd1 vccd1 vccd1 _1310_/A0 sky130_fd_sc_hd__buf_2
XFILLER_0_296 vssd1 vssd1 vccd1 vccd1 sky130_fd_sc_hd__decap_4
Xinput153 wbs_b_dat_i[7] vssd1 vssd1 vccd1 vccd1 _1532_/A2 sky130_fd_sc_hd__buf_2
Xinput131 wbs_b_dat_i[16] vssd1 vssd1 vccd1 vccd1 _1563_/A2 sky130_fd_sc_hd__clkbuf_4
Xinput142 wbs_b_dat_i[26] vssd1 vssd1 vccd1 vccd1 _1595_/A2 sky130_fd_sc_hd__buf_2
XFILLER_102_191 vssd1 vssd1 vccd1 vccd1 sky130_fd_sc_hd__decap_4
XFILLER_56_83 vssd1 vssd1 vccd1 vccd1 sky130_fd_sc_hd__fill_1
XFILLER_16_153 vssd1 vssd1 vccd1 vccd1 sky130_fd_sc_hd__decap_12
XFILLER_71_281 vssd1 vssd1 vccd1 vccd1 sky130_fd_sc_hd__decap_4
XFILLER_31_167 vssd1 vssd1 vccd1 vccd1 sky130_fd_sc_hd__fill_1
Xclkbuf_1_1_0__0570_ clkbuf_0__0570_/X vssd1 vssd1 vccd1 vccd1 _1856_/A1 sky130_fd_sc_hd__clkbuf_2
XPHY_170 vssd1 vssd1 vccd1 vccd1 sky130_fd_sc_hd__decap_3
XFILLER_82_6 vssd1 vssd1 vccd1 vccd1 sky130_fd_sc_hd__decap_8
XPHY_181 vssd1 vssd1 vccd1 vccd1 sky130_fd_sc_hd__decap_3
XPHY_192 vssd1 vssd1 vccd1 vccd1 sky130_fd_sc_hd__decap_3
X_1622_ _1622_/A vssd1 vssd1 vccd1 vccd1 _1622_/X sky130_fd_sc_hd__buf_1
X_1553_ _1957_/Q _1526_/X _1530_/X vssd1 vssd1 vccd1 vccd1 _1553_/X sky130_fd_sc_hd__a21o_1
X_1484_ _1459_/X _1481_/X _1482_/X _1483_/X vssd1 vssd1 vccd1 vccd1 _1484_/X sky130_fd_sc_hd__o211a_1
XFILLER_39_278 vssd1 vssd1 vccd1 vccd1 sky130_fd_sc_hd__fill_2
XFILLER_54_248 vssd1 vssd1 vccd1 vccd1 sky130_fd_sc_hd__decap_4
XFILLER_54_259 vssd1 vssd1 vccd1 vccd1 sky130_fd_sc_hd__decap_12
XFILLER_22_189 vssd1 vssd1 vccd1 vccd1 sky130_fd_sc_hd__decap_6
XFILLER_108_217 vssd1 vssd1 vccd1 vccd1 sky130_fd_sc_hd__decap_12
XFILLER_123_209 vssd1 vssd1 vccd1 vccd1 sky130_fd_sc_hd__decap_6
XFILLER_131_220 vssd1 vssd1 vccd1 vccd1 sky130_fd_sc_hd__decap_4
XFILLER_116_294 vssd1 vssd1 vccd1 vccd1 sky130_fd_sc_hd__decap_4
XFILLER_89_145 vssd1 vssd1 vccd1 vccd1 sky130_fd_sc_hd__fill_2
XFILLER_89_167 vssd1 vssd1 vccd1 vccd1 sky130_fd_sc_hd__fill_1
XTAP_690 vssd1 vccd1 sky130_fd_sc_hd__tapvpwrvgnd_1
XFILLER_26_53 vssd1 vssd1 vccd1 vccd1 sky130_fd_sc_hd__decap_12
XFILLER_26_97 vssd1 vssd1 vccd1 vccd1 sky130_fd_sc_hd__decap_12
XFILLER_53_281 vssd1 vssd1 vccd1 vccd1 sky130_fd_sc_hd__fill_1
XFILLER_13_167 vssd1 vssd1 vccd1 vccd1 sky130_fd_sc_hd__fill_1
XFILLER_9_105 vssd1 vssd1 vccd1 vccd1 sky130_fd_sc_hd__decap_6
XFILLER_9_149 vssd1 vssd1 vccd1 vccd1 sky130_fd_sc_hd__decap_12
XFILLER_42_41 vssd1 vssd1 vccd1 vccd1 sky130_fd_sc_hd__decap_12
XFILLER_42_85 vssd1 vssd1 vccd1 vccd1 sky130_fd_sc_hd__decap_12
XFILLER_122_253 vssd1 vssd1 vccd1 vccd1 sky130_fd_sc_hd__decap_12
XFILLER_3_35 vssd1 vssd1 vccd1 vccd1 sky130_fd_sc_hd__decap_12
XFILLER_122_297 vssd1 vssd1 vccd1 vccd1 sky130_fd_sc_hd__decap_3
XFILLER_3_57 vssd1 vssd1 vccd1 vccd1 sky130_fd_sc_hd__decap_12
XFILLER_95_137 vssd1 vssd1 vccd1 vccd1 sky130_fd_sc_hd__decap_12
XFILLER_36_259 vssd1 vssd1 vccd1 vccd1 sky130_fd_sc_hd__fill_1
XFILLER_44_270 vssd1 vssd1 vccd1 vccd1 sky130_fd_sc_hd__decap_12
XFILLER_83_81 vssd1 vssd1 vccd1 vccd1 sky130_fd_sc_hd__decap_12
X_0984_ _1955_/Q _0978_/X _0979_/X _0983_/X vssd1 vssd1 vccd1 vccd1 _1955_/D sky130_fd_sc_hd__o211a_1
Xclkbuf_0__0521_ _1766_/X vssd1 vssd1 vccd1 vccd1 clkbuf_0__0521_/X sky130_fd_sc_hd__clkbuf_16
Xclkbuf_0__0452_ _1655_/X vssd1 vssd1 vccd1 vccd1 clkbuf_0__0452_/X sky130_fd_sc_hd__clkbuf_16
X_1605_ _1975_/Q _1497_/X _1503_/X vssd1 vssd1 vccd1 vccd1 _1605_/X sky130_fd_sc_hd__a21o_1
X_1536_ _1501_/X _1536_/A2 _1533_/X _1535_/X vssd1 vssd1 vccd1 vccd1 _1536_/X sky130_fd_sc_hd__o211a_1
X_1467_ input93/X _1432_/X _1464_/X _1466_/X vssd1 vssd1 vccd1 vccd1 _1467_/X sky130_fd_sc_hd__a22o_1
XFILLER_86_126 vssd1 vssd1 vccd1 vccd1 sky130_fd_sc_hd__decap_4
X_1398_ input79/X _1383_/X _1394_/X _1397_/X vssd1 vssd1 vccd1 vccd1 _1398_/X sky130_fd_sc_hd__a22o_1
X_1190__5 _1930_/CLK vssd1 vssd1 vccd1 vccd1 _1765_/A sky130_fd_sc_hd__inv_2
XFILLER_94_181 vssd1 vssd1 vccd1 vccd1 sky130_fd_sc_hd__fill_1
XFILLER_94_192 vssd1 vssd1 vccd1 vccd1 sky130_fd_sc_hd__decap_4
XFILLER_63_18 vssd1 vssd1 vccd1 vccd1 sky130_fd_sc_hd__decap_12
XFILLER_103_69 vssd1 vssd1 vccd1 vccd1 sky130_fd_sc_hd__decap_12
XFILLER_35_270 vssd1 vssd1 vccd1 vccd1 sky130_fd_sc_hd__decap_8
XFILLER_35_281 vssd1 vssd1 vccd1 vccd1 sky130_fd_sc_hd__decap_4
XFILLER_50_284 vssd1 vssd1 vccd1 vccd1 sky130_fd_sc_hd__decap_4
XFILLER_12_77 vssd1 vssd1 vccd1 vccd1 sky130_fd_sc_hd__decap_6
XFILLER_128_77 vssd1 vssd1 vccd1 vccd1 sky130_fd_sc_hd__decap_6
XFILLER_104_253 vssd1 vssd1 vccd1 vccd1 sky130_fd_sc_hd__decap_12
XFILLER_41_262 vssd1 vssd1 vccd1 vccd1 sky130_fd_sc_hd__fill_1
XFILLER_41_273 vssd1 vssd1 vccd1 vccd1 sky130_fd_sc_hd__decap_4
XFILLER_52_7 vssd1 vssd1 vccd1 vccd1 sky130_fd_sc_hd__decap_4
X_1321_ _1321_/A _1321_/B vssd1 vssd1 vccd1 vccd1 _1322_/A sky130_fd_sc_hd__or2_1
X_1252_ input79/X _1548_/A2 _1260_/S vssd1 vssd1 vccd1 vccd1 _1253_/A sky130_fd_sc_hd__mux2_2
X_1183_ _1186_/A _1720_/A vssd1 vssd1 vccd1 vccd1 _1456_/A sky130_fd_sc_hd__or2_2
XFILLER_24_218 vssd1 vssd1 vccd1 vccd1 sky130_fd_sc_hd__fill_1
XFILLER_24_229 vssd1 vssd1 vccd1 vccd1 sky130_fd_sc_hd__decap_12
XFILLER_17_281 vssd1 vssd1 vccd1 vccd1 sky130_fd_sc_hd__decap_3
XFILLER_32_273 vssd1 vssd1 vccd1 vccd1 sky130_fd_sc_hd__decap_12
X_0967_ input9/X _0967_/B vssd1 vssd1 vccd1 vccd1 _0967_/X sky130_fd_sc_hd__or2_1
X_0898_ _0898_/A vssd1 vssd1 vccd1 vccd1 _1980_/D sky130_fd_sc_hd__clkbuf_1